SOLUTION 1 Al conc under gibbsite solubility control, pH 4
	pH 4
	Al 1 Gibbsite 0.0
SOLUTION 2 Al conc under gibbsite solubility control, pH 7
	pH 7
	Al 1 Gibbsite 0.0